Version 4
SHEET 1 2028 388
WIRE 272 -272 0 -272
WIRE 0 -224 0 -272
WIRE 272 -224 272 -272
WIRE 272 -112 272 -144
WIRE 416 -112 272 -112
WIRE 496 -112 416 -112
WIRE 624 -112 560 -112
WIRE 768 -112 704 -112
WIRE 896 -112 848 -112
WIRE 1040 -112 896 -112
WIRE 1104 -112 1040 -112
WIRE 1200 -112 1184 -112
WIRE 1296 -112 1264 -112
WIRE 1344 -112 1296 -112
WIRE 1520 -112 1488 -112
WIRE 1552 -112 1520 -112
WIRE 1712 -112 1696 -112
WIRE 1824 -112 1712 -112
WIRE 0 -96 0 -144
WIRE 1040 -96 1040 -112
WIRE 1296 -96 1296 -112
WIRE 1520 -96 1520 -112
WIRE 1712 -96 1712 -112
WIRE 1824 -64 1824 -112
WIRE 416 -48 416 -112
WIRE 896 -48 896 -112
WIRE 64 0 0 0
WIRE 160 0 144 0
WIRE 272 0 272 -112
WIRE 416 64 416 16
WIRE 896 64 896 16
WIRE 1824 64 1824 16
WIRE 0 80 0 0
WIRE 160 80 160 0
WIRE 224 80 160 80
WIRE 272 112 272 96
WIRE 0 208 0 160
FLAG 0 208 0
FLAG 272 112 0
FLAG 0 -96 0
FLAG 416 64 0
FLAG 896 64 0
FLAG 1824 64 0
FLAG 1296 -32 0
FLAG 1520 -32 0
FLAG 1040 -32 0
FLAG 1712 -32 0
FLAG 960 -32 0
SYMBOL voltage 0 -240 R0
WINDOW 123 24 132 Left 2
SYMATTR Value2 ""
SYMATTR InstName Vbattery
SYMATTR Value 13.8
SYMBOL voltage 0 64 R0
WINDOW 123 24 132 Left 2
WINDOW 39 0 0 Left 2
SYMATTR Value2 ""
SYMATTR SpiceLine ""
SYMATTR InstName Vgen
SYMATTR Value PULSE(0 12 0 25n 25n 46n 142n)
SYMBOL res 160 -16 R90
WINDOW 0 0 56 VBottom 2
WINDOW 3 32 56 VTop 2
SYMATTR InstName RGen
SYMATTR Value 10
SYMBOL ind 256 -240 R0
SYMATTR InstName L1
SYMATTR Value 16.2395µH
SYMBOL cap 400 -48 R0
SYMATTR InstName C1
SYMATTR Value 328.554pF
SYMBOL cap 560 -128 R90
WINDOW 0 0 32 VBottom 2
WINDOW 3 32 32 VTop 2
SYMATTR InstName C2
SYMATTR Value 422.193pF
SYMBOL ind 608 -96 R270
WINDOW 0 32 56 VTop 2
WINDOW 3 5 56 VBottom 2
SYMATTR InstName L2
SYMATTR Value 1.62395µH
SYMBOL ind 752 -96 R270
WINDOW 0 32 56 VTop 2
WINDOW 3 5 56 VBottom 2
SYMATTR InstName L3
SYMATTR Value 511nH
SYMBOL cap 912 -48 M0
SYMATTR InstName C3
SYMATTR Value 710.361pF
SYMBOL res 1808 -80 R0
SYMATTR InstName RLoad
SYMATTR Value 50
SYMBOL cap 1264 -128 R90
WINDOW 0 0 32 VBottom 2
WINDOW 3 32 32 VTop 2
SYMATTR InstName C5
SYMATTR Value 150p
SYMBOL cap 1280 -96 R0
SYMATTR InstName C6
SYMATTR Value 390p
SYMBOL cap 1488 -128 R90
WINDOW 0 0 32 VBottom 2
WINDOW 3 32 32 VTop 2
SYMATTR InstName C7
SYMATTR Value 220p
SYMBOL cap 1504 -96 R0
SYMATTR InstName C8
SYMATTR Value 390p
SYMBOL cap 1696 -128 R90
WINDOW 0 0 32 VBottom 2
WINDOW 3 32 32 VTop 2
SYMATTR InstName C9
SYMATTR Value 150p
SYMBOL ind 1088 -96 R270
WINDOW 0 32 56 VTop 2
WINDOW 3 5 56 VBottom 2
SYMATTR InstName L4
SYMATTR Value 2µ2
SYMBOL ind 1328 -96 R270
WINDOW 0 32 56 VTop 2
WINDOW 3 5 56 VBottom 2
SYMATTR InstName L5
SYMATTR Value 2µ2
SYMBOL ind 1536 -96 R270
WINDOW 0 32 56 VTop 2
WINDOW 3 5 56 VBottom 2
SYMATTR InstName L6
SYMATTR Value 2µ2
SYMBOL cap 1024 -96 R0
SYMATTR InstName C4
SYMATTR Value 27p
SYMBOL cap 1696 -96 R0
SYMATTR InstName C10
SYMATTR Value 27p
SYMBOL nmos 224 0 R0
SYMATTR InstName M1
SYMATTR Value 2N7002
TEXT 488 168 Left 2 !.tran 0 30.37u 27.94u 709.2p startup
TEXT 488 232 Left 2 ;Drawn by 'ClassE - www.TonneSoftware.com'
TEXT 640 -168 Left 2 ;L total = 2.13495uH
TEXT 488 200 Left 2 !.include irl540ns.spi
