Version 4
SHEET 1 880 680
WIRE 176 64 -96 64
WIRE 528 64 176 64
WIRE 528 112 528 64
WIRE 176 144 176 64
WIRE 176 160 176 144
WIRE 144 176 64 176
WIRE 304 176 224 176
WIRE 336 176 304 176
WIRE 432 176 336 176
WIRE 688 176 640 176
WIRE 688 192 688 176
WIRE 752 192 688 192
WIRE 768 192 752 192
WIRE 0 208 -32 208
WIRE 144 208 0 208
WIRE 336 208 336 176
WIRE 432 208 336 208
WIRE 688 208 688 192
WIRE 688 208 640 208
WIRE -32 240 -32 208
WIRE 64 240 64 176
WIRE 176 240 176 224
WIRE 768 240 768 192
WIRE -96 320 -96 144
WIRE -32 320 -96 320
WIRE 64 320 -32 320
WIRE 160 320 160 240
WIRE 160 320 64 320
WIRE 176 320 176 240
WIRE 176 320 160 320
WIRE 192 320 192 240
WIRE 192 320 176 320
WIRE 528 320 528 272
WIRE 528 320 192 320
WIRE 768 320 768 304
WIRE 768 320 528 320
WIRE -96 336 -96 320
FLAG -96 336 0
FLAG 752 192 OUT
FLAG 304 176 DRV_IN
FLAG 0 208 IN
SYMBOL voltage -96 48 R0
WINDOW 0 -83 25 Left 2
WINDOW 3 -88 82 Left 2
WINDOW 39 -108 119 Left 2
SYMATTR InstName V1
SYMATTR Value 12V
SYMATTR SpiceLine Rser=0
SYMBOL voltage -32 224 R0
WINDOW 0 -20 117 Left 2
WINDOW 3 -21 145 Left 2
SYMATTR InstName V2
SYMATTR Value PULSE(0 3.3 0 5n 5n 45n 100n)
SYMBOL cap 752 240 R0
SYMATTR InstName C1
SYMATTR Value 180p
SYMBOL mosfet_driver 528 192 R0
SYMATTR InstName U1
SYMBOL voltage 64 224 R0
WINDOW 0 43 32 Left 2
WINDOW 3 43 58 Left 2
WINDOW 123 0 0 Left 2
WINDOW 39 0 0 Left 2
SYMATTR InstName V3
SYMATTR Value 1.65V
SYMATTR Value2 ""
SYMATTR SpiceLine ""
SYMBOL Comparators\\LT1713 176 192 R0
SYMATTR InstName U2
TEXT -96 -24 Left 2 !.include ZXGD3003E6.txt
TEXT -96 -48 Left 2 !.tran 0 10u 0 100p
TEXT -96 0 Left 2 !.include TI.txt
